Circuit: * C:\Users\jcasa\Documents\projects\Disruptocooler\ltspice\generator4.asc

Direct Newton iteration for .op point succeeded.
Ignoring empty pin current: Ix(u1:5)
Ignoring empty pin current: Ix(u1:5)
Heightened Def Con from 2.002e-005 to 2.0023e-005
Heightened Def Con from 2.003e-005 to 2.0032e-005
Heightened Def Con from 2.15249e-005 to 2.15279e-005
Heightened Def Con from 2.153e-005 to 2.1532e-005
Heightened Def Con from 2.453e-005 to 2.4532e-005
Heightened Def Con from 2.953e-005 to 2.9532e-005

Date: Sun Sep 28 10:42:50 2014
Total elapsed time: 0.860 seconds.

tnom = 27
temp = 27
method = modified trap
totiter = 47582
traniter = 47562
tranpoints = 13396
accept = 10171
rejected = 3231
matrix size = 27
fillins = 3
solver = Normal
Matrix Compiler1: 1.34 KB object code size  0.5/0.6/[0.2]
Matrix Compiler2: off  [0.4]/0.8/0.6


