Circuit: * C:\Users\jcasa\Documents\projects\Disruptocooler\ltspice\generator.asc

Direct Newton iteration for .op point succeeded.
Ignoring empty pin current: Ix(u1:5)
Ignoring empty pin current: Ix(u1:5)
Heightened Def Con from 2.003e-005 to 2.003e-005

Date: Fri Sep 26 15:31:38 2014
Total elapsed time: 0.540 seconds.

tnom = 27
temp = 27
method = modified trap
totiter = 44099
traniter = 44084
tranpoints = 12252
accept = 9585
rejected = 2668
matrix size = 26
fillins = 2
solver = Normal
Matrix Compiler1: 1.22 KB object code size  0.6/0.5/[0.2]
Matrix Compiler2: off  [0.3]/0.6/0.4


