Circuit: * C:\Users\Joaquin\Documents\projects\Disruptocooler\ltspice\generator0.asc

Direct Newton iteration for .op point succeeded.
Ignoring empty pin current: Ix(u1:5)
Ignoring empty pin current: Ix(u1:5)

Date: Sat Sep 27 17:58:03 2014
Total elapsed time: 0.835 seconds.

tnom = 27
temp = 27
method = modified trap
totiter = 47838
traniter = 47819
tranpoints = 13603
accept = 10319
rejected = 3284
matrix size = 27
fillins = 4
solver = Normal
Matrix Compiler1: 1.35 KB object code size  0.8/0.4/[0.4]
Matrix Compiler2: off  [0.5]/0.6/0.7


