Circuit: * C:\Users\jcasa\Documents\projects\Disruptocooler\ltspice\generator4.asc

Direct Newton iteration for .op point succeeded.
Ignoring empty pin current: Ix(u1:5)
Ignoring empty pin current: Ix(u1:5)
Heightened Def Con from 2.003e-005 to 2.0032e-005
Heightened Def Con from 2.053e-005 to 2.0532e-005
Heightened Def Con from 2.103e-005 to 2.1032e-005
Heightened Def Con from 2.153e-005 to 2.1532e-005
Heightened Def Con from 2.603e-005 to 2.6032e-005
Heightened Def Con from 2.703e-005 to 2.7032e-005

Date: Wed Oct 01 12:12:34 2014
Total elapsed time: 0.577 seconds.

tnom = 27
temp = 27
method = modified trap
totiter = 45543
traniter = 45523
tranpoints = 12928
accept = 9851
rejected = 3083
matrix size = 27
fillins = 3
solver = Normal
Matrix Compiler1: 1.34 KB object code size  0.6/0.5/[0.2]
Matrix Compiler2: off  [0.3]/0.7/0.6


