Circuit: * C:\Users\Joaquin\Documents\projects\Disruptocooler\ltspice\generator4.asc

Direct Newton iteration for .op point succeeded.
Ignoring empty pin current: Ix(u1:5)
Ignoring empty pin current: Ix(u1:5)
Heightened Def Con from 2.053e-005 to 2.0532e-005
Heightened Def Con from 2.403e-005 to 2.4032e-005
Heightened Def Con from 2.553e-005 to 2.5532e-005
Heightened Def Con from 2.803e-005 to 2.8032e-005

Date: Sat Sep 27 18:02:57 2014
Total elapsed time: 0.705 seconds.

tnom = 27
temp = 27
method = modified trap
totiter = 46999
traniter = 46979
tranpoints = 13281
accept = 10267
rejected = 3018
matrix size = 27
fillins = 3
solver = Normal
Matrix Compiler1: 1.34 KB object code size  0.7/0.4/[0.3]
Matrix Compiler2: off  [0.4]/0.6/0.7


