Circuit: * C:\Users\jcasa\Documents\projects\Disruptocooler\ltspice\generator2.asc

WARNING: Less than two connections to node U1:N032.  This node is used by A:U1:15.
Direct Newton iteration for .op point succeeded.
Ignoring empty pin current: Ix(u1:3)
Ignoring empty pin current: Ix(u1:10)
Ignoring empty pin current: Ix(u1:3)
Ignoring empty pin current: Ix(u1:10)
Heightened Def Con from 0.0225 to 0.0225
Heightened Def Con from 0.0345 to 0.0345

Date: Fri Sep 26 12:49:40 2014
Total elapsed time: 1.387 seconds.

tnom = 27
temp = 27
method = modified trap
totiter = 72445
traniter = 72427
tranpoints = 20993
accept = 16169
rejected = 4826
matrix size = 39
fillins = 14
solver = Normal
Matrix Compiler1: 2.32 KB object code size  1.0/0.8/[0.3]
Matrix Compiler2: off  [0.5]/1.0/0.6


